<?xml version="1.0" encoding="UTF-8"?>

<!-- generated on 2026-03-20 01:58:59.181106 by Eclipse SUMO randomTrips.py v1_26_0+0000-fa7df22d7f1
<configuration>
    <net-file value="city.net.xml"/>
    <output-trip-file value="truck.trips.xml"/>
    <route-file value="truck.rou.xml"/>
    <prefix value="truck_"/>
    <end value="60.0"/>
    <period value="1.2"/>
</configuration>
-->

<!-- generated on 2026-03-20T01:58:58.934318+05:30 by Eclipse SUMO duarouter 1.26.0
<duarouterConfiguration xmlns:xsi="http://www.w3.org/2001/XMLSchema-instance" xsi:noNamespaceSchemaLocation="http://sumo.dlr.de/xsd/duarouterConfiguration.xsd">

    <input>
        <net-file value="city.net.xml"/>
        <route-files value="truck.trips.xml"/>
    </input>

    <output>
        <output-file value="truck.rou.xml"/>
        <alternatives-output value="NUL"/>
    </output>

    <time>
        <begin value="0.0"/>
        <end value="60.0"/>
    </time>

    <report>
        <no-warnings value="true"/>
        <ignore-errors value="true"/>
        <no-step-log value="true"/>
    </report>

</duarouterConfiguration>
-->

<routes xmlns:xsi="http://www.w3.org/2001/XMLSchema-instance" xsi:noNamespaceSchemaLocation="http://sumo.dlr.de/xsd/routes_file.xsd">
    <vehicle id="truck_0" depart="0.00">
        <route edges="1476367787 -1077964865#2 -1077964865#1 -1077964865#0 1476367789 1472194828 31017802 1148389026#0 1148389026#1 1148389026#2 211435436#2 211435436#3-AddedOnRampEdge 211435436#3 211435436#4 211435436#5 211435436#6 211435431 211435435 1314562634#1 638949189 645931469 211144516 211144510#0 211144510#1 211144510#2 211144510#3 211144510#4 211144510#5 211144510#6 31018487#0 31018487#1 31018487#2 31018487#3 31018487#4 31018487#5 31018487#6 31018487#7 39878698#3 39878698#4 39878698#5 39878698#6 39878698#7 1302857726#0 1302857726#1 1302857726#2 1302857726#3 1302857726#4 649374473 211144507#1 211144507#2 211144507#3 211144507#4 215226013#0 215226013#1 1187802596#0 1187802596#1 1187802596#2 -1187802593#2"/>
    </vehicle>
    <vehicle id="truck_1" depart="1.20">
        <route edges="-215225904#3 -215225904#1 -215225904#0 235978550#8 235978550#9 235978550#10 235978550#11 235978550#12 235978550#13 235978550#15 -215225804#8 -215225804#7"/>
    </vehicle>
    <vehicle id="truck_2" depart="2.40">
        <route edges="571251127#2 571251127#4 571251127#5 571251125#1 571251125#2 571251125#3 211435443#4 211435443#5 211435443#6 211435443#7 211435443#0 211435434#0 211435434#1 211435434#2 1304780921 645931467#0 645931467#1 211435432 211435430#0 211435430#1 211435430#2 211435430#3 1148389026#6 1148389026#7 1314563168#0 1314563168#1 1148388978 806496420#0 806496420#1 1148116361#3 1148116361#4 1148116361#6 1148116361#7 1148116361#8 1148116361#9 568688185#0 568688185#1 568688185#2 568688185#3 568688185#4 568688185#5 568688185#6 568688185#8 39878107#4 1473780265#0 1473780265#1 -1473780270"/>
    </vehicle>
    <vehicle id="truck_3" depart="3.60">
        <route edges="-652174239#3 -652174239#2 652174239#2 652174239#3 652174239#4 643765595#0 643765593#0 643765593#1 643765593#2 643765593#3 211144510#4 211144510#5 211144510#6 211144510#7 211144513 638949188 639984045#1 639984045#2 645931471#0 1314562634#1 645931464#0 645931464#1 645931464#2 -596072306#2 -596072306#1 -596072306#0 -1475550215 -643674199#19 -643674199#18 -643674199#16 -643674199#15 -643674199#14 -643674199#13 -643674199#12 -643674199#11 -643674199#10 -643674199#9 -643674199#8 -643674199#7 -1188222831#0"/>
    </vehicle>
    <vehicle id="truck_4" depart="4.80">
        <route edges="-1477479089#0 -572818156#6 -572818156#5 -572818156#4 -572818156#3 -572818156#2 -572818156#1 119369341#0 119369341#1 119369341#2 1148389205#1 1148389205#2 1148389205#3 1148389205#4 235978550#15 235978550#17 235978550#18 235978550#19 235978550#20 235978550#21 235978550#22 235978550#23 1088763745#0 1088763745#1 211144501 1302855389#0 1302855389#1 1302855389#3 1302855389#4 1302855389#5 1302855389#6 1302855389#7 1302855389#8 1302855389#9 1302855389#10 649536244#0 649536244#1 649536244#2 649536244#3 649536244#4 649536244#5 649536244#6 1300554281#1 1300554281#2 842299392#0 -607643587 39882527#0 39882527#1 39882527#2 39882527#3 1148384986 1148384989#0 1148384989#1 1148385043 1148385042#0 1148385042#1 1148385307 1148385306#0 1148385306#1 1148385306#2 1148385306#3 562707805#0 562707805#2 562707805#3 1442903978#0 1442903978#1 1442903978#2 1442903978#3 1148116361#0 1148116361#1 1148116361#2 1148384459#9 1148384459#10 -570439244#2 -570439244#1 -570439244#0 1310990243#1 1310990242#0"/>
    </vehicle>
    <vehicle id="truck_5" depart="6.00">
        <route edges="1476442822#0 1476442822#1 211144507#24 211144507#25 1051778199#1 1051778199#2 1051778199#4 1051778199#5 1051778199#6 1051778199#7 1051778200#0 1051778200#1 556448398#1 556448398#2 556448398#3 556448398#4 556448398#5 556448398#6 556448398#7 556448398#9 556448398#10 556448398#11 211144501 1302855389#0 1302855389#1 1302855389#3 1302855389#4 1302855389#5 1302855389#6 1302855389#7 1302855389#8 1302855389#9 1302855389#10 649536244#0 649536244#1 649536244#2 649536244#3 649536244#4 649536244#5 649536244#6 1300554281#1 1300554281#2 842299392#0 -607643587 39882527#0 39882527#1 39882527#2 39882527#3 1148384986 1148384989#0 1148384989#1 1148385043 1148385042#0 1148385042#1 1148385307 1148385306#0 1148385306#1 1148385306#2 1148385306#3 562707805#0 562707805#2 562707805#3 1442903978#0 1442903978#1 1442903978#2 1442903978#3 1148116361#0 1148116361#1 1148116361#2 1148116361#3 1148116361#4 1148116361#6 1148116361#7 1148116361#8 1148116361#9 568688185#0 568688185#1 568688185#2 568688185#3 568688185#4 568688185#5 568688185#6 568688185#8 39878107#4 1473780265#0 1473780266#0 1473780267#0 1473780267#1"/>
    </vehicle>
    <vehicle id="truck_6" depart="7.20">
        <route edges="-1477756831#0 -423779221#0 -423779216#2 -423779216#1 -423779216#0 575018112#2 575018112#3 1431486291#0 1431486291#1 1431486291#2 1431486291#3 1148389205#0 1148389205#1 1148389205#2 1148389205#3 1148389205#4 235978550#15 235978550#17 235978550#18 235978550#19 235978550#20 235978550#21 235978550#22 235978550#23 1088763745#0 1088763745#1 211144501 1302855389#0 1302855389#1 1302855389#3 1302855389#4 1302855389#5 1302855389#6 1302855389#7 1302855389#8 1302855389#9 1302855389#10 649536244#0 649536244#1 649536244#2 649536244#3 649536244#4 649536244#5 649536244#6 1300554281#1 1300554281#2 842299392#0 549952257#1 549952257#1-AddedOffRampEdge 549952257#2 211144510#1 211144510#2 211144510#3 211144510#4 211144510#5 211144510#6 211144510#7 211144513 638949188 639984045#1 639984045#2 645931471#0 645931463#0 645931463#1 645931463#2 645931463#3 211435443#2 211435443#3 211435443#4 211435433#0 211435433#1 211435433#3 211435433#4 211435433#5 211435433#7 211435433#8 211435433#10 566888433#0 566888433#1 566888433#2 566888433#3 1475539683#0 1475539685"/>
    </vehicle>
    <vehicle id="truck_7" depart="8.40">
        <route edges="376927932#3 376927932#4 1177833595#0 1177833595#1 1177833595#2 1177833595#3 1177833597 1177833599 -1472194828 1472194826 1476367790 569828894#0 569828894#1 569828894#2 569828894#3 569828894#4 569828899#1 569828899#2 -1077964865#9 -1077964865#8"/>
    </vehicle>
    <vehicle id="truck_8" depart="9.60">
        <route edges="-414952113#0 414952113#0 414952113#1 643674199#10 643674199#11 643674199#12 643674199#13 643674199#14 643674199#15 643674199#16 643674199#18 643674199#19 643674199#20 596072306#0 596072306#1 596072306#2 1141877378 31018496#0 31018496#1 31018496#2 1314562634#1 638949189 645931469 211144516 211144510#0 211144510#1 211144510#2 211144510#3 211144510#4 211144510#5 211144510#6 31018487#0 31018487#1 31018487#2 31018487#3 31018487#4 31018487#5 31018487#6 31018487#7 39878698#3 39878698#4 39878698#5 39878698#6 39878698#7 1302857726#0 1302857726#1 1302857726#2 1302857726#3 1302857726#4 649374473 556448399#0 556448399#2 556448399#3 556448399#4 556448399#5 556448399#7 31018342#1 31018342#2 31018342#3 31018342#4 31018342#5 -1431486291#3 -1431486291#2 -1431486291#1 -1431486291#0 -575018112#3 -575018112#2 423779216#0 423779216#1 1476427068 -1476427066#1 -1476427066#0"/>
    </vehicle>
    <vehicle id="truck_9" depart="10.80">
        <route edges="645931471#0 645931467#0 645931467#1 211435432 211435430#0 211435430#1 -571261805#11 -571261805#9 -571261805#8 -571261805#7 -571261805#6 -571261805#5 -571261805#4"/>
    </vehicle>
    <vehicle id="truck_10" depart="12.00">
        <route edges="-1472211712#0 376927955#3 376927955#4 376927955#5 376927955#6 376927955#7 1476088058 835836918#0 835836918#1 571283265#8 571283265#9 835836473#1 835836473#2 211435443#0 211435434#0 211435434#1 211435434#2 1304780921 1314562634#1 638949189 645931469 211144516 211144510#0 211144510#1 211144510#2 211144510#3 211144510#4 211144510#5 211144510#6 31018487#0 31018487#1 31018487#2 31018487#3 31018487#4 31018487#5 31018487#6 31018487#7 39878698#3 39878698#4 39878698#5 39878698#6 39878698#7 1302857726#0 1302857726#1 1302857726#2 1302857726#3 1302857726#4 649374473 211144507#1 211144507#2 211144507#3 211144507#4 211144507#6 211144507#7 211144507#8 211144507#9 211144507#10 211144507#11 211144507#12 211144507#13 1474419448#0 1474419448#1 -1474419455 -1474419453#0"/>
    </vehicle>
    <vehicle id="truck_11" depart="13.20">
        <route edges="556448399#11 235978550#11 235978550#12 235978550#13 235978550#15 235978550#17 235978550#18 235978550#19 235978550#20 235978550#21 235978550#22 235978550#23 1088763745#0 1088763745#1 211144501 1302855389#0 1302855389#1 1302855389#3 1302855389#4 1302855389#5 1302855389#6 1302855389#7 1302855389#8 1302855389#9 1302855389#10 649536244#0 649536244#1 649536244#2 649536244#3 649536244#4 649536244#5 649536244#6 1300554281#1 1300554281#2 842299392#0 549952257#1 549952257#1-AddedOffRampEdge 549952257#2 211144510#1 211144510#2 211144510#3 211144510#4 211144510#5 211144510#6 211144510#7 211144513 638949188 639984045#1 639984045#2 645931471#0 645931463#0 645931463#1 645931463#2 645931463#3 211435443#2 211435443#3 211435443#4 211435443#5 211435443#6 571251131#0 571251131#1 571251131#2 -571283265#9 -571283265#8 -571283265#7 -571283265#6 -571283265#5 -571283265#3 376927950#0 376927950#1 376927950#2 376927950#3 376927950#4 -1475533521 -569823308#4 -215241757#17 -215241757#15 -215241757#14 -215241757#12 -215241757#11 -215241757#10 -215241757#9 -215241757#8 -215241757#7 1188648217#0 1188648217#1 1476064451#0 1476064451#1 1476064451#2 1476069153#0 -1476069156 1479340411 1476074786#1 -1476074785#2 1476074787#0 1476074787#1"/>
    </vehicle>
    <vehicle id="truck_12" depart="14.40">
        <route edges="376529092 -215241741#1 -215241741#0 -215089971#4 -215089971#3 -215089971#2 -215089971#1 -215089971#0 -643839962#1 -1075949320 806496420#1 1148384459#9 806496421#4 806496421#5-AddedOnRampEdge 806496421#5 806496421#6 211435438 1314563169 1148388980#0 48789226#0 48789226#1 48789226#2 48789226#3 211435436#3-AddedOnRampEdge 211435436#3 211435436#4 211435436#5 211435436#6 211435431 211435435 645931463#0 645931463#1 645931463#2 645931463#3 211435443#2 571251126#0 571251126#1 571251126#2 571251126#3 571251126#4 -803688002#8 -803688002#7 -803688002#6 -803688002#3 -803688002#2 -571283247#1 -571283247#0 215225823#1"/>
    </vehicle>
    <vehicle id="truck_13" depart="15.60">
        <route edges="1302855393 31017575#1 31017575#2 31017575#3 1051778199#1 1051778199#2 1051778199#4 1051778199#5 1051778199#6 1051778199#7 1051778200#0 1051778200#1 556448398#1 556448398#2 556448398#3 556448398#4 556448398#5 556448398#6 556448398#7 556448398#9 556448398#10 556448398#11 211144501 1302855389#0 1302855389#1 1302855389#3 1302855389#4 1302855389#5 1302855389#6 1302855389#7 1302855389#8 1302855389#9 1302855389#10 649536244#0 649536244#1 649536244#2 649536244#3 649536244#4 649536244#5 649536244#6 1300554281#1 1300554281#2 842299392#0 549952257#1 549952257#1-AddedOffRampEdge 549952257#2 211144510#1 211144510#2 211144510#3 211144510#4 211144510#5 211144510#6 211144510#7 211144513 638949188 639984045#1 639984045#2 645931471#0 645931463#0 645931463#1 645931463#2 645931463#3 211435443#2 211435443#3 211435443#4 211435433#0 211435433#1 211435433#3 211435433#4 211435433#5 211435433#7 211435433#8 211435433#10 566888433#0 566888433#1 566888433#2 566888433#3 566888433#4 566888433#6 566888433#7 646210541#1 646210541#2 646210541#3 703914562"/>
    </vehicle>
    <vehicle id="truck_14" depart="16.80">
        <route edges="-571261805#2 -571261805#1 643674199#20 596072306#0 596072306#1 596072306#2 1141877378 31018496#0 31018496#1 31018496#2 1314562634#1 638949189 645931469 211144516 211144510#0 211144510#1 211144510#2 211144510#3 211144510#4 211144510#5 211144510#6 31018487#0 31018487#1 31018487#2 31018487#3 31018487#4 31018487#5 31018487#6 31018487#7 39878698#3 39878698#4 39878698#5 39878698#6 39878698#7 1302857726#0 1302857726#1 1302857726#2 1302857726#3 1302857726#4 649374473 211144507#1 211144507#2 211144507#3 211144507#4 211144507#6 211144507#7 211144507#8 211144507#9 211144507#10 211144507#11 211144507#12 211144507#13 1474419448#0 1474419448#1 1474419443"/>
    </vehicle>
    <vehicle id="truck_15" depart="18.00">
        <route edges="423749120#2 423749120#3 423749120#4 423749120#6 423749120#7 423749120#8 235978550#19 235978550#20 235978550#21 235978550#22 235978550#23 1088763745#0 1088763745#1 211144501 1302855389#0 1302855389#1 1302855389#3 1302855389#4 1302855389#5 1302855389#6 1302855389#7 1302855389#8 1302855389#9 1302855389#10 649536244#0 649536244#1 649536244#2 649536244#3 649536244#4 649536244#5 649536244#6 1300554281#1 1300554281#2 842299392#0 549952257#1 549952257#1-AddedOffRampEdge 549952257#2 211144510#1 211144510#2 211144510#3 211144510#4 211144510#5 211144510#6 211144510#7 211144513 638949188 639984045#1 639984045#2 645931471#0 645931463#0 645931463#1 645931463#2 645931463#3 211435443#2 211435443#3 211435443#4 211435443#5 211435443#6 571251131#0 571251131#1 571251131#2 -571283265#9 -571283265#8 -571283265#7 -571283265#6 -571283265#5 -571283265#3 376927950#0 376927950#1 376927950#2 376927950#3 376927950#4 -1475533521 -569823308#4 -215241757#17 -215241757#15 -215241757#14 -215241757#12 -215241757#11 -215241757#10 -215241757#9 1476108801#0 1476108801#1 1476108801#2 1476108802#0"/>
    </vehicle>
    <vehicle id="truck_16" depart="19.20">
        <route edges="563558937#1 -563558937#1 -563558937#0 1051778199#1 1051778199#2 1051778199#4 1051778199#5 1051778199#6 1051778199#7 1051778200#0 1051778200#1 556448398#1 556448398#2 556448398#3 556448398#4 556448398#5 556448398#6 556448398#7 556448398#9 556448398#10 556448398#11 211144501 1302855389#0 1302855389#1 1302855389#3 1302855389#4 1302855389#5 1302855389#6 1302855389#7 1302855389#8 1302855389#9 1302855389#10 649536244#0 649536244#1 649536244#2 649536244#3 649536244#4 649536244#5 649536244#6 1300554281#1 1300554281#2 842299392#0 549952257#1 549952257#1-AddedOffRampEdge 549952257#2 211144510#1 211144510#2 211144510#3 211144510#4 211144510#5 211144510#6 211144510#7 211144513 638949188 639984045#1 639984045#2 645931471#0 645931463#0 645931463#1 645931463#2 645931463#3 211435443#2 211435443#3 211435443#4 211435443#5 211435443#6 571251131#0 571251131#1 571251131#2 -571283265#9 -571283265#8 -571283265#7 -31018059#5 -31018059#4 -31018059#3 -31018059#2 211435465#0 211435465#1 211435465#2 211435465#3 211435465#4 211435465#5 211435465#6 1192597867#3 1475065041#0 1475065041#1"/>
    </vehicle>
    <vehicle id="truck_17" depart="20.40">
        <route edges="211144562#6 211144562#7 211144562#8 557258132#5 557258132#6 1302855388#0 574660827#0 574660827#1 574660827#2 574660827#3 211144510#6 211144510#7 211144513 638949188 639984045#1 639984045#2 645931471#0 645931463#0 645931463#1 645931463#2 645931463#3 211435443#2 211435443#3 211435443#4 211435443#5 211435443#6 571251131#0 571251131#1 571251131#2 787435666#1 787435666#2 787435666#3 572043465#0 572043465#1 572043465#2 572043465#3 572043465#4 -1473267701 1472239948#1 1472239948#2 -827806717#0 -1192597867#4 -1192597867#3"/>
    </vehicle>
    <vehicle id="truck_18" depart="21.60">
        <route edges="-151770985 215225997#14 215225997#15 592566490#0 592566490#1 592566490#2 592566490#3 592566490#4 592566490#5 592566490#7 592566490#8 1051778200#1 556448398#1 556448398#2 556448398#3 556448398#4 556448398#5 556448398#6 556448398#7 556448398#9 556448398#10 556448398#11 211144501 1302855389#0 1302855389#1 1302855389#3 1302855389#4 1302855389#5 1302855389#6 1302855389#7 1302855389#8 1302855389#9 1302855389#10 649536244#0 649536244#1 649536244#2 649536244#3 649536244#4 649536244#5 649536244#6 1300554281#1 1300554281#2 842299392#0 549952257#1 549952257#1-AddedOffRampEdge 549952257#2 211144510#1 211144510#2 620623448#0 620623448#1 643765595#2 119369334#0 119369334#1 -323842020#2 -323842020#1 -323842020#0 -39878430#0"/>
    </vehicle>
    <vehicle id="truck_19" depart="22.80">
        <route edges="-1431486293#2 -1431486293#1 -119369343#10 -119369343#9 -119369343#8 -119369343#7 -119369343#6 -119369343#5 -119369343#4 -119369343#3 -119369343#2 -119369343#1 235978550#2 235978550#3 235978550#4 235978550#6 235978550#8 235978550#9 235978550#10 235978550#11 235978550#12 235978550#13 235978550#15 235978550#17 235978550#18 235978550#19 1412984988#0 1412984988#1 1477398353 215225991#2 215225991#3 -215225894#2 -215225894#1 -215225894#0"/>
    </vehicle>
    <vehicle id="truck_20" depart="24.00">
        <route edges="-1473780266#2 -1473780266#1 -1473780266#0 1473780265#1 1473780265#2 1473780265#3 39878101#2 39878101#3 39878101#4 39878101#5 39878101#7 39878101#8 806496434#7 1148384459#0 1148384459#1 1148384459#3 1148384459#4 1148384459#5 1148384459#6 1148384459#7 1148384459#9 806496421#4 806496421#5-AddedOnRampEdge 806496421#5 806496421#6 211435438 1314563169 1148388980#0 48789226#0 48789226#1 48789226#2 48789226#3 211435436#3-AddedOnRampEdge 211435436#3 211435436#4 211435436#5 211435436#6 211435431 211435435 645931463#0 645931463#1 645931463#2 645931463#3 211435443#2 211435443#3 211435443#4 211435443#5 211435443#6 571251131#0 571251131#1 571251131#2 787435666#1 787435666#2 787435666#3 572043465#0 572043465#1 -211435467#3 -211435467#2 -31018098#1"/>
    </vehicle>
    <vehicle id="truck_21" depart="25.20">
        <route edges="1476108800#1 1476108800#2 1476108800#3 -1476108801#0 -215241757#8 -215241757#7 -215241757#5 -215241757#3 -215241757#2 1177833595#3 1177833597 1177833599 31017802 1148389026#0 1148389026#1 618224966 1052698340#1 1052698340#2 -618224967#26 -618224967#25 -618224967#24 -618224967#23 -618224967#22 -618224967#21 -618224967#20 -618224967#18 -569828900 -618224967#7 -618224967#6 -618224967#5"/>
    </vehicle>
    <vehicle id="truck_22" depart="26.40">
        <route edges="-567266239#5 211435448#0 1148384989#0 1148384989#1 1148385043 -1148385044 1148385045#0 1148385045#1 1148384988#0 1148384988#1 1148384988#2 211435445 549952257#1 549952257#1-AddedOffRampEdge 549952257#2 211144510#1 211144510#2 211144510#3 211144510#4 211144510#5 211144510#6 211144510#7 211144513 638949188 639984045#1 639984045#2 645931471#0 645931463#0 645931463#1 645931463#2 645931463#3 211435443#2 211435443#3 211435443#4 211435443#5 211435443#6 571251131#0 571251131#1 571251131#2 -571283265#9 -571283265#8 -571283265#7 -571283265#6 -571283265#5 31018059#0 -31018150#4 -414987038 -211435465#0"/>
    </vehicle>
    <vehicle id="truck_23" depart="27.60">
        <route edges="1476430109#1 1476430109#2 -1476430109#2 -1476430109#1 -1476430109#0 592566490#7 592566490#8 1051778200#1 556448398#1 556448398#2 556448398#3 556448398#4 556448398#5 556448398#6 556448398#7 556448398#9 556448398#10 556448398#11 211144501 1302855389#0 1302855389#1 1302855389#3 1302855389#4 1302855389#5 1302855389#6 1302855389#7 1302855389#8 1302855389#9 1302855389#10 649536244#0 649536244#1 649536244#2 649536244#3 649536244#4 649536244#5 649536244#6 1300554281#1 1300554281#2 842299392#0 549952257#1 549952257#1-AddedOffRampEdge 549952257#2 211144510#1 211144510#2 211144510#3 211144510#4 211144510#5 211144510#6 211144510#7 211144513 638949188 639984045#1 639984045#2 645931471#0 645931463#0 645931463#1 645931463#2 645931463#3 211435443#2 211435443#3 211435443#4 211435443#5 211435443#6 571251131#0 571251131#1 571251131#2 -571283265#9 -571283265#8 -571283265#7 -571283265#6 -571283265#5 -571283265#3 376927950#0 376927950#1 376927950#2 376927950#3 572043470#0 572043470#1 572043470#2 572043470#3 572043470#4 572043470#5 572043470#6 1476081266#0 1476083285"/>
    </vehicle>
    <vehicle id="truck_24" depart="28.80">
        <route edges="-1476103648#1 -1476103648#0 215241757#17 569823308#4 1475533520#1 -376927950#4 -376927950#3 -376927950#2 -376927950#1 -376927950#0 571283265#3 571283265#5 571283265#6 571283265#7 571283265#8 571283265#9 835836473#1 835836473#2 211435443#0 211435434#0 211435434#1 211435434#2 1304780921 1314562634#1 638949189 645931469 211144516 211144510#0 211144510#1 211144510#2 211144510#3 211144510#4 211144510#5 211144510#6 31018487#0 31018487#1 31018487#2 31018487#3 31018487#4 31018487#5 31018487#6 31018487#7 39878698#3 39878698#4 39878698#5 39878698#6 39878698#7 1302857726#0 1302857726#1 1302857726#2 1302857726#3 1302857726#4 649374473 211144507#1 211144507#2 211144507#3 211144507#4 211144507#6 211144507#7 211144507#8 211144507#9 211144507#10 211144507#11 211144507#12 211144507#13 211144507#14 211144507#15 211144507#16 211144507#17 211144507#18 211144507#19 211144507#20 211144507#21 215225811#0 215225811#2 215225811#3 215225811#4 215225811#5"/>
    </vehicle>
    <vehicle id="truck_25" depart="30.00">
        <route edges="-1476081269 1476081269 -1476081266#2 -1476081266#1 -1476081266#0 572043470#7 572043470#8 -423811124#0 571283266#2 571283264#4 571283264#5 571283264#6 215226033#0 215226033#1 215226033#2 215226033#3 566888433#0 566888433#1 566888433#2 566888433#3 566888433#4 566888433#6 -151770988#0 -659857898#3"/>
    </vehicle>
    <vehicle id="truck_26" depart="31.20">
        <route edges="806496421#0 570439245 1442903395 211435455#1 211435455#2-AddedOnRampEdge 211435455#2 562707806 1148385308#0 1148385308#1 1148385045#0 1148385045#1 1148384988#0 1148384988#1 1148384988#2 211435445 39878698#2 39878698#3 39878698#4 39878698#5 39878698#6 39878698#7 1302857726#0 1302857726#1 1302857726#2 1302857726#3 1302857726#4 649374473 556448399#0 556448399#2 556448399#3 215225997#1 215225997#2 215225997#3 215225997#4 -215225894#5 -215225894#4 -215225894#2 1476484608#0"/>
    </vehicle>
    <vehicle id="truck_27" depart="32.40">
        <route edges="1472194801#2 1472194808#0 1472194808#1 -1472194809 -1077964865#3 -1077964865#2 -1077964865#1 -1077964865#0 1476367789 1472194828 31017802 1148389026#0 1148389026#1 1148389026#2 211435436#2 211435436#3-AddedOnRampEdge 211435436#3 211435436#4 211435436#5 211435436#6 211435431 211435435 1314562634#1 638949189 645931469 211144516 211144510#0 211144510#1 211144510#2 211144510#3 211144510#4 211144510#5 211144510#6 31018487#0 31018487#1 31018487#2 31018487#3 31018487#4 31018487#5 31018487#6 31018487#7 39878698#3 39878698#4 39878698#5 39878698#6 39878698#7 1302857726#0 1302857726#1 1302857726#2 1302857726#3 1302857726#4 649374473 211144507#1 211144507#2 211144507#3 211144507#4 211144507#6 211144507#7 211144507#8 211144507#9 211144507#10 211144507#11 211144507#12 211144507#13 211144507#14 211144507#15 211144507#16 211144507#17 211144507#18 211144507#19 211144507#20 211144507#21"/>
    </vehicle>
    <vehicle id="truck_28" depart="33.60">
        <route edges="548952857#1 -548952857#1 -548952857#0 1148388978 806496420#0 806496420#1 1148116361#3 1148116361#4 1148116361#6 1148116361#7 1148116361#8 1148116361#9 1148384456#0 1148384456#1 1148384456#2 1148384456#3 1148384456#4 1148384456#5 1148384456#7 1148384456#8 1148384456#9 1148384456#10 1148384456#11 1148384456#12 -643839962#20 -643839962#19 215241767 215241773#0 215241671 -215241751#0 215241751#0"/>
    </vehicle>
    <vehicle id="truck_29" depart="34.80">
        <route edges="-151770988#6 -151770988#5 151770988#5 151770988#6 151770988#7 151770988#8 151770988#9 571283261#8 31017910#1 31017910#3 31017910#4 31017910#7 31017910#8 -215241727#10 -215241727#9 -215241727#7 -215241727#6 -215241727#5 -215241727#4 -215241727#3 -215241727#2 -412041739#20 -412041739#19 -412041739#18 -412041739#17 -412041739#16 -412041739#15 -412041739#14 -412041739#13 -412041739#12 -412041739#11 -412041739#10 -412041739#9 -1140711876#1 -1140711876#0 1140711875#3 -1476064451#2 -1476064451#1 -1476064451#0 -1188648217#1 -1188648217#0"/>
    </vehicle>
    <vehicle id="truck_30" depart="36.00">
        <route edges="-31017910#3 -31017910#1 31017910#1 31017910#3 31017910#4 31017910#7 31017910#8 -215241727#10 -215241727#9 -215241727#7 -215241727#6 -215241727#5 -215241727#4 -215241727#3 -215241727#2 -215241727#1 -215241727#0 1148389027#7 1148389027#9 1177833595#0 1177833595#1 1177833595#2 215241757#2 39878462 -882684894 -215241744#3"/>
    </vehicle>
    <vehicle id="truck_31" depart="37.20">
        <route edges="-1476873639#0 -1476873633#0 -1190952478#0 -414987007#1 -414987007#0 566888437#2 566888437#3 566888437#4 566888437#5 566888437#7 566888437#9 566888437#10 211435443#6 211435443#7 211435443#0 211435434#0 211435434#1 211435434#2 1304780921 1314562634#1 638949189 645931469 211144516 211144510#0 211144510#1 211144510#2 211144510#3 211144510#4 211144510#5 211144510#6 31018487#0 31018487#1 31018487#2 31018487#3 31018487#4 31018487#5 31018487#6 31018487#7 39878698#3 39878698#4 39878698#5 39878698#6 39878698#7 1302857726#0 1302857726#1 1302857726#2 1302857726#3 1302857726#4 649374473 211144507#1 211144507#2 211144507#3 211144507#4 211144507#6 211144507#7 211144507#8 211144507#9 211144507#10 211144507#11 211144507#12 211144507#13 211144507#14 211144507#15 211144507#16 211144507#17 211144507#18 211144507#19 211144507#20 211144507#21 211144507#23 211144507#24 -1476442821#1 -1476442821#0 215225967#1 -215225904#8 -215225904#7 -215225904#6 630925470"/>
    </vehicle>
    <vehicle id="truck_32" depart="38.40">
        <route edges="567266239#10 567266239#11 1148385308#0 1148385308#1 1148385045#0 1148385045#1 1148384988#0 1148384988#1 1148384988#2 211435445 549952257#1 549952257#1-AddedOffRampEdge 549952257#2 211144510#1 211144510#2 620623448#0 620623448#1 643765595#2 1302855386#0 1302855386#1 1302855386#2 -652174239#4 -557279282#8 -557279282#7 -557279282#5 -557279282#4 -557279282#2 -557279282#1"/>
    </vehicle>
    <vehicle id="truck_33" depart="39.60">
        <route edges="1476734207 600546179#6 600546178#1 600546178#2 600546178#3 818671094#0 818671094#1 818671094#2 818671094#3 -818671094#3"/>
    </vehicle>
    <vehicle id="truck_34" depart="40.80">
        <route edges="572043465#3 567002258#0 567002258#1 31018098#4 31018098#5 31018098#6 -211435465#1 -211435465#0 -31018059#1 -31018059#0 -571283265#3 376927950#0 376927950#1 376927950#2 376927950#3 376927950#4 -1475533521 -569823308#4 -215241757#17 -215241757#15 -215241757#14 -215241757#12 -215241757#11 -215241757#10 -215241757#9 -215241757#8 -215241757#7 -215241757#5 -215241757#3 -215241757#2 1177833595#3 1177833597"/>
    </vehicle>
    <vehicle id="truck_35" depart="42.00">
        <route edges="-215225811#3 -215225811#2 -215225811#0 211144507#23 211144507#24 211144507#25 561157351#0 561157351#1 561157351#2 561157351#3 1160006919#1 1160006919#2 1160006919#3 1160006919#4 1160006919#5 235978550#6 235978550#8 235978550#9 235978550#10 235978550#11 235978550#12 235978550#13 235978550#15 235978550#17 235978550#18 235978550#19 1412984988#0 1412984988#1 1477398353 -215225991#1 -1476486207#2 -1476486207#1 -1476486207#0 -215225991#2"/>
    </vehicle>
    <vehicle id="truck_36" depart="43.20">
        <route edges="1472194812#0 1472194815#0 1472194817 -1472194802#0 -1472194801#2 -1472194801#0 -1077964865#0 1476367789 1472194828 31017802 1148389026#0 1148389026#1 1148389026#2 1148389026#6 1148389026#7 1314563168#0 1314563168#1 1148388978 806496420#0 1075949320 643839962#1 643839962#2 643839962#3 643839962#4 643839962#5 643839962#6 643839962#7 -215241720#1 -215241720#0"/>
    </vehicle>
    <vehicle id="truck_37" depart="44.40">
        <route edges="1474419453#2 1474419454 1474419452#1 -1474419448#0 556448398#6 556448398#7 556448398#9 556448398#10 556448398#11 211144501 1302855389#0 1302855389#1 1302855389#3 1302855389#4 1302855389#5 1302855389#6 1302855389#7 1302855389#8 1302855389#9 1302855389#10 649536244#0 649536244#1 649536244#2 649536244#3 649536244#4 649536244#5 649536244#6 1300554281#1 1300554281#2 842299392#0 549952257#1 549952257#1-AddedOffRampEdge 549952257#2 211144510#1 211144510#2 211144510#3 211144510#4 211144510#5 211144510#6 211144510#7 211144513 638949188 639984045#1 639984045#2 645931471#0 645931463#0 645931463#1 645931463#2 645931463#3 211435443#2 211435443#3 211435443#4 211435433#0 211435433#1 1472236771#1 571283256#2 571283254#0 571283254#1"/>
    </vehicle>
    <vehicle id="truck_38" depart="45.60">
        <route edges="-592566490#3 -592566490#2 592566490#2 592566490#3 592566490#4 592566490#5 592566490#7 592566490#8 1051778200#1 556448398#1 556448398#2 556448398#3 556448398#4 556448398#5 556448398#6 556448398#7 556448398#9 556448398#10 556448398#11 211144501 1302855389#0 1302855389#1 1302855389#3 1302855389#4 1302855389#5 1302855389#6 1302855389#7 1302855389#8 1302855389#9 1302855389#10 649536244#0 649536244#1 649536244#2 649536244#3 649536244#4 649536244#5 649536244#6 1300554281#1 1300554281#2 842299392#0 -607643587 39882527#0 39882527#1 39882527#2 39882527#3 1148384986 1148384989#0 1148384989#1 1148385043 1148385042#0 1148385042#1 1148385307 1148385306#0 1148385306#1 1148385306#2 1148385306#3 562707805#0 562707805#2 562707805#3 1442903978#0 1442903978#1 1442903978#2 1442903978#3 1148116361#0 1148116361#1 1148116361#2 1148116361#3 643839962#0 643839962#1 215089971#0 215089971#1 215089971#2 215089971#3 215089971#4 215089971#5 215089971#6 -215089971#6"/>
    </vehicle>