<additional>
    <vType id="car" vClass="passenger" accel="2.6" decel="4.5" sigma="0.5" length="4.5" minGap="2.5" maxSpeed="16.7" guiShape="passenger"/>
    <vType id="bus" vClass="bus" accel="1.3" decel="4.0" sigma="0.5" length="12.0" minGap="3.0" maxSpeed="13.9" guiShape="bus"/>
    <vType id="truck" vClass="truck" accel="1.0" decel="3.5" sigma="0.5" length="8.0" minGap="3.0" maxSpeed="12.5" guiShape="truck"/>
    <vType id="bike" vClass="bicycle" accel="1.2" decel="3.0" sigma="0.5" length="1.8" minGap="1.0" maxSpeed="6.9" guiShape="bicycle"/>
</additional>
